Version 4
SHEET 1 3356 680
WIRE 272 16 112 16
WIRE 3328 16 272 16
WIRE 112 128 112 16
WIRE 448 128 400 128
WIRE 3328 128 3328 16
FLAG 272 16 osc
SYMBOL MySymbols\\CMOS_INV_sym 272 128 R0
SYMATTR InstName X1
SYMBOL MySymbols\\CMOS_INV_sym 608 128 R0
SYMATTR InstName X2
SYMBOL MySymbols\\CMOS_INV_sym 896 128 R0
SYMATTR InstName X3
SYMBOL MySymbols\\CMOS_INV_sym 1184 128 R0
SYMATTR InstName X4
SYMBOL MySymbols\\CMOS_INV_sym 1472 128 R0
SYMATTR InstName X5
SYMBOL MySymbols\\CMOS_INV_sym 1760 128 R0
SYMATTR InstName X6
SYMBOL MySymbols\\CMOS_INV_sym 2048 128 R0
SYMATTR InstName X7
SYMBOL MySymbols\\CMOS_INV_sym 2336 128 R0
SYMATTR InstName X8
SYMBOL MySymbols\\CMOS_INV_sym 2624 128 R0
SYMATTR InstName X9
SYMBOL MySymbols\\CMOS_INV_sym 2912 128 R0
SYMATTR InstName X10
SYMBOL MySymbols\\CMOS_INV_sym 3200 128 R0
SYMATTR InstName X11
TEXT 104 -40 Left 2 !.include BSIM4_model.txt
TEXT 104 -80 Left 2 !.ic v(osc)=1
TEXT 100 -112 Left 2 !.tran 2n
